<?xml version="1.0" encoding="UTF-8"?>

<!-- generated on 2025-12-05 21:51:19.842368 by Eclipse SUMO osmWebWizard.py v1.25.0.post150
  options: 
-->

<additional xmlns:xsi="http://www.w3.org/2001/XMLSchema-instance" xsi:noNamespaceSchemaLocation="http://sumo.dlr.de/xsd/additional_file.xsd">
   <edgeData id="wizard_example" period="3600" file="edgeData.xml"/>
</additional>
